<?xml version="1.0" encoding="UTF-8"?>
<!DOCTYPE network SYSTEM "http://www.matsim.org/files/dtd/network_v2.dtd">
<network>
  <nodes>
    <node id="v_1" x="939508.0169349442" y="1912553.8382968977" />
    <node id="v_2" x="939510.4399149761" y="1912555.1344513048" />
    <node id="v_3" x="939519.2588160394" y="1912559.8482929775" />
    <node id="v_4" x="939528.0688338507" y="1912564.5622076415" />
    <node id="v_5" x="939536.887714922" y="1912569.276067629" />
    <node id="v_6" x="939545.6977127469" y="1912573.9900005898" />
    <node id="v_7" x="939554.5165658469" y="1912578.7027694979" />
    <node id="v_8" x="939563.3266074954" y="1912583.425595899" />
    <node id="v_9" x="939572.1366550876" y="1912588.150650229" />
    <node id="v_10" x="939580.9378274145" y="1912592.8768868728" />
    <node id="v_11" x="939589.7478629579" y="1912597.603068875" />
    <node id="v_12" x="939598.557880513" y="1912602.3281506256" />
    <node id="v_13" x="939607.3678960279" y="1912607.0543509158" />
    <node id="v_14" x="939616.1779015278" y="1912611.7805603463" />
    <node id="v_15" x="939624.9790238121" y="1912616.5068426507" />
    <node id="v_16" x="939633.7890092874" y="1912621.23307036" />
    <node id="v_17" x="939642.59897678" y="1912625.958197821" />
    <node id="v_18" x="939651.4089422266" y="1912630.684443817" />
    <node id="v_19" x="939660.2188976561" y="1912635.4106989577" />
    <node id="v_20" x="939669.0199698998" y="1912640.137026924" />
    <node id="v_21" x="939677.8299053045" y="1912644.8633003414" />
    <node id="v_22" x="939686.6398227367" y="1912649.5884735102" />
    <node id="v_23" x="939695.4497381126" y="1912654.314765215" />
    <node id="v_24" x="939704.4865815972" y="1912658.5146683035" />
    <node id="v_25" x="939713.898970321" y="1912661.8764716215" />
    <node id="v_26" x="939723.3113433917" y="1912665.2371760067" />
    <node id="v_27" x="939732.7325898646" y="1912668.5989366325" />
    <node id="v_28" x="939742.1449554913" y="1912671.960771347" />
    <node id="v_29" x="939751.5573054708" y="1912675.3215071298" />
    <node id="v_30" x="939760.9696557024" y="1912678.6833627678" />
    <node id="v_31" x="939770.381998238" y="1912682.045228867" />
    <node id="v_32" x="939779.7943251256" y="1912685.4059960376" />
    <node id="v_33" x="939789.215525384" y="1912688.7678195059" />
    <node id="v_34" x="939798.6278368775" y="1912692.1286076093" />
    <node id="v_35" x="939807.5596741051" y="1912696.5479336102" />
    <node id="v_36" x="939816.2554783459" y="1912701.464883014" />
    <node id="v_37" x="939824.960145415" y="1912706.3817778064" />
    <node id="v_38" x="939833.6648101457" y="1912711.299790915" />
    <node id="v_39" x="939842.369456654" y="1912716.216703555" />
    <node id="v_40" x="939851.3716975561" y="1912720.5612383182" />
    <node id="v_41" x="939860.3825957447" y="1912724.8768749316" />
    <node id="v_42" x="939869.4023576311" y="1912729.1924576454" />
    <node id="v_43" x="939878.4132370534" y="1912733.5081134124" />
    <node id="v_44" x="939887.4329801642" y="1912737.8237153005" />
    <node id="v_45" x="939896.4527138826" y="1912742.1393267782" />
    <node id="v_46" x="939905.4635651553" y="1912746.455011284" />
    <node id="v_47" x="939914.4832800978" y="1912750.7706419367" />
    <node id="v_48" x="939923.4941126042" y="1912755.086345595" />
    <node id="v_49" x="939932.5138087712" y="1912759.4019954212" />
    <node id="v_50" x="939941.5334955502" y="1912763.7176548394" />
    <node id="v_51" x="939950.5442999046" y="1912768.0333872351" />
    <node id="v_52" x="939959.4589020282" y="1912772.5472983473" />
    <node id="v_53" x="939968.3123181884" y="1912777.1925708035" />
    <node id="v_54" x="939977.1657165295" y="1912781.8367431008" />
    <node id="v_55" x="939986.0191128962" y="1912786.482034027" />
    <node id="v_56" x="939994.863626356" y="1912791.1273975319" />
    <node id="v_57" x="940003.7169950147" y="1912795.7715975298" />
    <node id="v_58" x="940012.5703616954" y="1912800.416916156" />
    <node id="v_59" x="940021.4237184788" y="1912805.0622440188" />
    <node id="v_60" x="940030.2681923731" y="1912809.7076444216" />
    <node id="v_61" x="940039.1215214552" y="1912814.351881355" />
    <node id="v_62" x="940047.9748485503" y="1912818.997236917" />
    <node id="v_63" x="940065.0401987175" y="1912827.9530565857" />
    <node id="v_64" x="940066.029274909" y="1912828.5317936908" />
    <node id="v_65" x="940074.2367120194" y="1912833.4436118605" />
    <node id="v_66" x="940082.818393213" y="1912838.5757695856" />
    <node id="v_67" x="940091.3911987959" y="1912843.7091086134" />
    <node id="v_68" x="940099.9728588641" y="1912848.8412836725" />
    <node id="v_69" x="940108.642020481" y="1912853.8019886322" />
    <node id="v_70" x="940117.6265509498" y="1912858.1924174766" />
    <node id="v_71" x="940126.6022068759" y="1912862.5840284342" />
    <node id="v_72" x="940135.5428830588" y="1912867.049121613" />
    <node id="v_73" x="940144.317326162" y="1912871.8471332847" />
    <node id="v_74" x="940153.0828862272" y="1912876.6452172017" />
    <node id="v_75" x="940161.848428284" y="1912881.4422007767" />
    <node id="v_76" x="940170.6228410356" y="1912886.240239642" />
    <node id="v_77" x="940179.3883628693" y="1912891.0372413315" />
    <node id="v_78" x="940188.162755385" y="1912895.835298329" />
    <node id="v_79" x="940196.9282648885" y="1912900.633427525" />
    <node id="v_80" x="940205.6937563915" y="1912905.4304563804" />
    <node id="v_81" x="940214.4681185553" y="1912910.2285405716" />
    <node id="v_82" x="940223.2335898328" y="1912915.02558754" />
    <node id="v_83" x="940232.007931763" y="1912919.823689863" />
    <node id="v_84" x="940240.7733828172" y="1912924.6207549456" />
    <node id="v_85" x="940249.5477045068" y="1912929.4188754011" />
    <node id="v_86" x="940258.3131432249" y="1912934.2170679918" />
    <node id="v_87" x="940267.0785639461" y="1912939.0141602405" />
    <node id="v_88" x="940275.8528552859" y="1912943.8123078907" />
    <node id="v_89" x="940284.6182557837" y="1912948.6094182536" />
    <node id="v_90" x="940293.392534768" y="1912953.4086934277" />
    <node id="v_91" x="940302.1579229205" y="1912958.2069312981" />
    <node id="v_92" x="940310.9233009644" y="1912963.0051782222" />
    <node id="v_93" x="940319.6975495908" y="1912967.8044805906" />
    <node id="v_94" x="940328.4629074044" y="1912972.6027456275" />
    <node id="v_95" x="940337.1144047976" y="1912977.6126232" />
    <node id="v_96" x="940345.7571292134" y="1912982.6381040697" />
    <node id="v_97" x="940354.3909782784" y="1912987.664766092" />
    <node id="v_98" x="940363.0336897154" y="1912992.6913739413" />
    <node id="v_99" x="940371.6763828562" y="1912997.7168811944" />
    <node id="v_100" x="940380.3190734423" y="1913002.743506639" />
    <node id="v_101" x="940388.9528808198" y="1913007.7702038086" />
    <node id="v_102" x="940397.5955426855" y="1913012.795737447" />
    <node id="v_103" x="940406.2382019907" y="1913017.8223892772" />
    <node id="v_104" x="940414.8808508675" y="1913022.8490499046" />
    <node id="v_105" x="940423.5146086987" y="1913027.8746728278" />
    <node id="v_106" x="940432.1572288629" y="1913032.9002416502" />
    <node id="v_107" x="940440.7998385987" y="1913037.9258192694" />
    <node id="v_108" x="940449.3284442561" y="1913043.143038568" />
    <node id="v_109" x="940457.8219098318" y="1913048.4115499451" />
    <node id="v_110" x="940466.3153646804" y="1913053.6800698168" />
    <node id="v_111" x="940474.8088088061" y="1913058.948598183" />
    <node id="v_112" x="940483.31975982" y="1913064.1848369779" />
    <node id="v_113" x="940491.8921729006" y="1913069.3307837078" />
    <node id="v_114" x="940500.4645753978" y="1913074.4767390927" />
    <node id="v_115" x="940508.9579139653" y="1913079.7364264661" />
    <node id="v_116" x="940517.3899573596" y="1913085.1130481816" />
    <node id="v_117" x="940525.8131172042" y="1913090.4897410516" />
    <node id="v_118" x="940534.2362740528" y="1913095.8675516685" />
    <node id="v_119" x="940542.6682848788" y="1913101.2441984785" />
    <node id="v_120" x="940551.1352890192" y="1913106.5518202423" />
    <node id="v_121" x="940559.6373886074" y="1913111.8048391782" />
    <node id="v_122" x="940568.148350148" y="1913117.057803886" />
    <node id="v_123" x="940576.6504283175" y="1913122.3108398558" />
    <node id="v_124" x="940585.1524957839" y="1913127.5638843363" />
    <node id="v_125" x="940593.6545525426" y="1913132.8169373297" />
    <node id="v_126" x="940602.1654712333" y="1913138.0699361311" />
    <node id="v_127" x="940610.6675065779" y="1913143.3230061568" />
    <node id="v_128" x="940619.1695312147" y="1913148.5760846927" />
    <node id="v_129" x="940627.6715451484" y="1913153.8291717437" />
    <node id="v_130" x="940636.1824209869" y="1913159.0822046374" />
    <node id="v_131" x="940644.684413504" y="1913164.3353087192" />
    <node id="v_132" x="940653.1863953134" y="1913169.5884213147" />
    <node id="v_133" x="940661.6883664196" y="1913174.8415424211" />
    <node id="v_134" x="940670.1991994102" y="1913180.094609407" />
    <node id="v_135" x="940678.6572403272" y="1913185.412405483" />
    <node id="v_136" x="940687.0978228158" y="1913190.772492161" />
    <node id="v_137" x="940695.5383944667" y="1913196.1325872277" />
    <node id="v_138" x="940703.9700827131" y="1913201.4927532806" />
    <node id="v_139" x="940712.4106326946" y="1913206.8528651162" />
    <node id="v_140" x="940720.8511640136" y="1913212.211875946" />
    <node id="v_141" x="940729.238942084" y="1913217.6411623738" />
    <node id="v_142" x="940737.6091988382" y="1913223.1038640116" />
    <node id="v_143" x="940746.1549557034" y="1913228.2901932662" />
    <node id="v_144" x="940754.7533506125" y="1913233.3929513493" />
    <node id="v_145" x="940763.3428624697" y="1913238.4957806764" />
    <node id="v_146" x="940764.9157021608" y="1913230.0129460772" />
    <node id="v_147" x="940765.7239095533" y="1913220.0499493098" />
    <node id="v_148" x="940766.5321113538" y="1913210.0858433994" />
    <node id="v_149" x="940767.3403232023" y="1913200.1228471366" />
    <node id="v_150" x="940768.1485372751" y="1913190.1598511247" />
    <node id="v_151" x="940768.9567535771" y="1913180.196855365" />
    <node id="v_152" x="940769.7649721034" y="1913170.233859857" />
    <node id="v_153" x="940767.6030875344" y="1913174.4561238799" />
    <node id="v_154" x="940762.7212904241" y="1913183.0377206253" />
    <node id="v_155" x="940755.0981209599" y="1913189.1556982507" />
    <node id="v_156" x="940745.5678912473" y="1913189.0697783197" />
    <node id="v_157" x="940742.1003345851" y="1913180.5148602922" />
    <node id="v_158" x="940742.3759306828" y="1913170.5223333493" />
    <node id="v_159" x="940742.6426551426" y="1913160.529869131" />
    <node id="v_160" x="940743.1224016534" y="1913150.546997693" />
    <node id="v_161" x="940743.753039094" y="1913140.570828779" />
    <node id="v_162" x="940744.3748057004" y="1913130.5947226342" />
    <node id="v_163" x="940744.9965740973" y="1913120.618616707" />
    <node id="v_164" x="940745.6272169424" y="1913110.642448441" />
    <node id="v_165" x="940746.2489811052" y="1913100.6652335492" />
    <node id="v_166" x="940746.8796275606" y="1913090.6890657186" />
    <node id="v_167" x="940747.5014031293" y="1913080.7129606514" />
    <node id="v_168" x="940748.1231804885" y="1913070.7368557996" />
    <node id="v_169" x="940748.7538323506" y="1913060.760688617" />
    <node id="v_170" x="940749.3756132944" y="1913050.7845841963" />
    <node id="v_171" x="940749.9973882083" y="1913040.8073706" />
    <node id="v_172" x="940750.628045475" y="1913030.831204063" />
    <node id="v_173" x="940751.2498317962" y="1913020.8551002897" />
    <node id="v_174" x="940751.8716199034" y="1913010.8789967312" />
    <node id="v_175" x="940752.502282579" y="1913000.9028308452" />
    <node id="v_176" x="940753.1240742753" y="1912990.926727717" />
    <node id="v_177" x="940753.7458599376" y="1912980.949515414" />
    <node id="v_178" x="940754.3765280199" y="1912970.9733501757" />
    <node id="v_179" x="940754.9983250913" y="1912960.9972476943" />
    <node id="v_180" x="940755.6289967792" y="1912951.02108289" />
    <node id="v_181" x="940756.2507974374" y="1912941.0449808403" />
    <node id="v_182" x="940756.8725998815" y="1912931.0688790053" />
    <node id="v_183" x="940757.5032691591" y="1912921.091605457" />
    <node id="v_184" x="940758.1250751923" y="1912911.1155040532" />
    <node id="v_185" x="940758.7468830114" y="1912901.1394028647" />
    <node id="v_186" x="940759.3775655146" y="1912891.1632393566" />
    <node id="v_187" x="940759.9993769227" y="1912881.1871386005" />
    <node id="v_188" x="940760.621182298" y="1912871.2099286653" />
    <node id="v_189" x="940761.2341165387" y="1912861.2327814775" />
    <node id="v_190" x="940761.8470525444" y="1912851.2556345044" />
    <node id="v_191" x="940762.4511173731" y="1912841.2785502744" />
    <node id="v_192" x="940764.316816904" y="1912831.5299971811" />
    <node id="v_193" x="940767.2842699499" y="1912821.9866949143" />
    <node id="v_194" x="940770.260602976" y="1912812.4433313934" />
    <node id="v_195" x="940773.2280700388" y="1912802.9000316677" />
    <node id="v_196" x="940776.2044171018" y="1912793.3566706928" />
    <node id="v_197" x="940777.323819366" y="1912783.472479962" />
    <node id="v_198" x="940777.9279095388" y="1912773.4953981559" />
    <node id="v_199" x="940778.5408744839" y="1912763.5182540496" />
    <node id="v_200" x="940779.1449603437" y="1912753.5400632748" />
    <node id="v_201" x="940779.7490557634" y="1912743.5629821047" />
    <node id="v_202" x="940780.3531529291" y="1912733.5859011472" />
    <node id="v_203" x="940780.9661170981" y="1912723.6076484993" />
    <node id="v_204" x="940781.561344686" y="1912713.6306304764" />
    <node id="v_205" x="940782.0145341957" y="1912703.6446282568" />
    <node id="v_206" x="940782.4588519934" y="1912693.658688736" />
    <node id="v_207" x="940782.9120442723" y="1912683.6726868951" />
    <node id="v_208" x="940783.3563648179" y="1912673.6867477503" />
    <node id="v_209" x="940783.8095676809" y="1912663.7018556788" />
    <node id="v_210" x="940784.2627641187" y="1912653.7158544054" />
    <node id="v_211" x="940784.7070887916" y="1912643.729915825" />
    <node id="v_212" x="940785.3023211613" y="1912633.7517900073" />
    <node id="v_213" x="940785.9330635904" y="1912623.775633174" />
    <node id="v_214" x="940786.5549346402" y="1912613.7995390585" />
    <node id="v_215" x="940787.3987624327" y="1912603.839632906" />
    <node id="v_216" x="940788.2692277851" y="1912593.8817582969" />
    <node id="v_217" x="940789.1396955096" y="1912583.9238839555" />
    <node id="v_218" x="940790.0989682159" y="1912573.9753694313" />
    <node id="v_219" x="940791.1736659305" y="1912564.0360272676" />
    <node id="v_220" x="940792.2483743079" y="1912554.0977948157" />
    <node id="v_221" x="940793.3142122721" y="1912544.1596251742" />
    <node id="v_222" x="940794.1139539666" y="1912536.7573075448" />
    <node id="v_223" x="940792.8105635458" y="1912524.3062848267" />
    <node id="v_224" x="940790.8780001675" y="1912514.4979594063" />
    <node id="v_225" x="940788.4937146604" y="1912504.8093081242" />
    <node id="v_226" x="940783.7296377833" y="1912496.1503457967" />
    <node id="v_227" x="940776.7403381667" y="1912489.0491937485" />
    <node id="v_228" x="940768.8790786659" y="1912482.8783604784" />
    <node id="v_229" x="940760.3414249293" y="1912477.686395445" />
    <node id="v_230" x="940754.7808397566" y="1912474.3728315784" />
    <node id="v_231" x="940768.0820346606" y="1912476.8075336497" />
    <node id="v_232" x="940777.9091077422" y="1912478.6077182316" />
    <node id="v_233" x="940787.7450497311" y="1912480.4078517556" />
    <node id="v_234" x="940797.5721217863" y="1912482.2091686195" />
    <node id="v_235" x="940801.0423097797" y="1912488.5873508549" />
    <node id="v_236" x="940799.6211934764" y="1912498.4814234723" />
    <node id="v_237" x="940798.1912075235" y="1912508.375559008" />
    <node id="v_238" x="940796.7700985263" y="1912518.2696324869" />
    <node id="v_239" x="940795.3489931768" y="1912528.163706396" />
    <node id="v_240" x="939506.7037791517" y="1912551.3936415438" />
    <node id="v_241" x="939510.7896586828" y="1912540.845539354" />
    <node id="v_242" x="939514.3963061215" y="1912531.5223926804" />
    <node id="v_243" x="939517.994088508" y="1912522.199311624" />
    <node id="v_244" x="939521.6007524313" y="1912512.8761685034" />
    <node id="v_245" x="939524.9138309375" y="1912503.4475224977" />
    <node id="v_246" x="939528.0578769842" y="1912493.9579647642" />
    <node id="v_247" x="939531.1930570524" y="1912484.4684722556" />
    <node id="v_248" x="939534.3371257946" y="1912474.9800267117" />
    <node id="v_249" x="939537.4811939176" y="1912465.4904731775" />
    <node id="v_250" x="939540.6252694059" y="1912456.0009210429" />
    <node id="v_251" x="939543.7782735046" y="1912446.5179628546" />
    <node id="v_252" x="939546.9579290807" y="1912437.0381428292" />
    <node id="v_253" x="939550.1287186926" y="1912427.5583880364" />
    <node id="v_254" x="939553.299515717" y="1912418.0786346649" />
    <node id="v_255" x="939556.4703281347" y="1912408.5999921083" />
    <node id="v_256" x="939559.6411399904" y="1912399.1202415775" />
    <node id="v_257" x="939562.8119592607" y="1912389.6404924705" />
    <node id="v_258" x="939565.9827859459" y="1912380.160744783" />
    <node id="v_259" x="939569.1536200433" y="1912370.6809985188" />
    <node id="v_260" x="939572.3244695318" y="1912361.2023630664" />
    <node id="v_261" x="939575.4953184603" y="1912351.7226196437" />
    <node id="v_262" x="939579.8769318793" y="1912342.7855727316" />
    <node id="v_263" x="939583.7153182056" y="1912333.5806169517" />
    <node id="v_264" x="939587.2509536389" y="1912324.2302819043" />
    <node id="v_265" x="939590.7865892153" y="1912314.8788391815" />
    <node id="v_266" x="939594.3222408782" y="1912305.528507569" />
    <node id="v_267" x="939597.902403842" y="1912296.1967185854" />
    <node id="v_268" x="939601.7406570427" y="1912286.9673655587" />
    <node id="v_269" x="939605.5789268799" y="1912277.7391239104" />
    <node id="v_270" x="939609.4260789442" y="1912268.5108205078" />
    <node id="v_271" x="939613.2643661158" y="1912259.2825828372" />
    <node id="v_272" x="939617.4498552533" y="1912250.2082859736" />
    <node id="v_273" x="939621.822336523" y="1912241.2214045757" />
    <node id="v_274" x="939626.1948193843" y="1912232.233416298" />
    <node id="v_275" x="939630.5673118073" y="1912223.2454305324" />
    <node id="v_276" x="939635.2960809732" y="1912214.4390579464" />
    <node id="v_277" x="939640.087214606" y="1912205.665524085" />
    <node id="v_278" x="939644.8783663937" y="1912196.8931025893" />
    <node id="v_279" x="939649.6695204078" y="1912188.119574673" />
    <node id="v_280" x="939654.8706645705" y="1912179.5927332304" />
    <node id="v_281" x="939660.4016022222" y="1912171.2665577095" />
    <node id="v_282" x="939665.9236772987" y="1912162.9404497468" />
    <node id="v_283" x="939671.4546371469" y="1912154.6142819792" />
    <node id="v_284" x="939676.9856001389" y="1912146.2870086983" />
    <node id="v_285" x="939682.516582195" y="1912137.9608486898" />
    <node id="v_286" x="939688.0743238226" y="1912129.6522518715" />
    <node id="v_287" x="939694.1405284512" y="1912121.709458617" />
    <node id="v_288" x="939700.2156263401" y="1912113.7677157253" />
    <node id="v_289" x="939706.2818541299" y="1912105.8249317058" />
    <node id="v_290" x="939712.3481014479" y="1912097.8832616915" />
    <node id="v_291" x="939718.4232261413" y="1912089.940423278" />
    <node id="v_292" x="939724.4894966164" y="1912081.9987625014" />
    <node id="v_293" x="939730.5646444829" y="1912074.0559333358" />
    <node id="v_294" x="939736.6309381151" y="1912066.1142817945" />
    <node id="v_295" x="939742.6972353726" y="1912058.1715254742" />
    <node id="v_296" x="939748.8259787644" y="1912050.2727043238" />
    <node id="v_297" x="939755.2850199749" y="1912042.6444457634" />
    <node id="v_298" x="939761.7440809362" y="1912035.0173017895" />
    <node id="v_299" x="939768.2031457577" y="1912027.3890536176" />
    <node id="v_300" x="939774.6622223884" y="1912019.760810641" />
    <node id="v_301" x="939781.1213108216" y="1912012.1325728605" />
    <node id="v_302" x="939787.5804190089" y="1912004.5054496664" />
    <node id="v_303" x="939794.0395310596" y="1911996.8772222763" />
    <node id="v_304" x="939800.4986549127" y="1911989.24900008" />
    <node id="v_305" x="939806.957790575" y="1911981.6207830803" />
    <node id="v_306" x="939813.4258198597" y="1911973.9936171467" />
    <node id="v_307" x="939819.884979145" y="1911966.3654105442" />
    <node id="v_308" x="939826.3441502326" y="1911958.7372091366" />
    <node id="v_309" x="939832.803341068" y="1911951.1101223158" />
    <node id="v_310" x="939839.2625357728" y="1911943.481931298" />
    <node id="v_311" x="939845.7217502168" y="1911935.8548548685" />
    <node id="v_312" x="939852.1809764701" y="1911928.2277836334" />
    <node id="v_313" x="939858.6402065911" y="1911920.5996082015" />
    <node id="v_314" x="939864.8941181254" y="1911912.8009419385" />
    <node id="v_315" x="939871.0855587967" y="1911904.9516927511" />
    <node id="v_316" x="939877.2770190679" y="1911897.1035577527" />
    <node id="v_317" x="939886.2212081508" y="1911885.7620637426" />
    <node id="v_318" x="939884.1874359" y="1911891.7543126473" />
    <node id="v_319" x="939879.5613694884" y="1911897.610883703" />
    <node id="v_320" x="939873.3787814503" y="1911905.4589535482" />
    <node id="v_321" x="939867.1873390579" y="1911913.3082010297" />
    <node id="v_322" x="939860.9602142423" y="1911921.1299723904" />
    <node id="v_323" x="939854.5009745365" y="1911928.7570366338" />
    <node id="v_324" x="939848.0417466334" y="1911936.3841060712" />
    <node id="v_325" x="939841.5825384771" y="1911944.0122900973" />
    <node id="v_326" x="939835.1233341871" y="1911951.6393699246" />
    <node id="v_327" x="939828.6552678101" y="1911959.2665184527" />
    <node id="v_328" x="939822.1960950781" y="1911966.8947180703" />
    <node id="v_329" x="939815.7369341552" y="1911974.5229228837" />
    <node id="v_330" x="939809.2777850345" y="1911982.151132891" />
    <node id="v_331" x="939802.8186397804" y="1911989.7782387016" />
    <node id="v_332" x="939796.3595142771" y="1911997.4064591003" />
    <node id="v_333" x="939789.9004005763" y="1912005.0346846955" />
    <node id="v_334" x="939783.4412986847" y="1912012.6629154831" />
    <node id="v_335" x="939776.9822006561" y="1912020.2900420749" />
    <node id="v_336" x="939770.5231223752" y="1912027.918283253" />
    <node id="v_337" x="939764.0551820938" y="1912035.5465932006" />
    <node id="v_338" x="939757.5961274372" y="1912043.1748447786" />
    <node id="v_339" x="939751.1370766403" y="1912050.8019921584" />
    <node id="v_340" x="939744.972605798" y="1912058.668893611" />
    <node id="v_341" x="939738.9063067973" y="1912066.6116482734" />
    <node id="v_342" x="939732.8400114176" y="1912074.5532981576" />
    <node id="v_343" x="939726.7648618063" y="1912082.4961256627" />
    <node id="v_344" x="939720.698589586" y="1912090.4377847821" />
    <node id="v_345" x="939714.6323368943" y="1912098.3805579077" />
    <node id="v_346" x="939708.5572140868" y="1912106.3222898901" />
    <node id="v_347" x="939702.4909845516" y="1912114.2650722533" />
    <node id="v_348" x="939696.4247586373" y="1912122.2067498367" />
    <node id="v_349" x="939690.3496785418" y="1912130.1496050803" />
    <node id="v_350" x="939684.7384142705" y="1912138.4197535983" />
    <node id="v_351" x="939679.2163040532" y="1912146.7458484634" />
    <node id="v_352" x="939673.6853312326" y="1912155.0720108654" />
    <node id="v_353" x="939668.1543774789" y="1912163.3992865419" />
    <node id="v_354" x="939662.6234268686" y="1912171.7254567042" />
    <node id="v_355" x="939657.0924873619" y="1912180.0516307454" />
    <node id="v_356" x="939651.820017617" y="1912188.5323858652" />
    <node id="v_357" x="939647.0288616279" y="1912197.3059125366" />
    <node id="v_358" x="939642.2377158321" y="1912206.0794421807" />
    <node id="v_359" x="939637.446572262" y="1912214.8518654036" />
    <node id="v_360" x="939632.6732816969" y="1912223.637476879" />
    <node id="v_361" x="939628.3007872595" y="1912232.6254615274" />
    <node id="v_362" x="939623.928294417" y="1912241.612339298" />
    <node id="v_363" x="939619.5558191001" y="1912250.6003289735" />
    <node id="v_364" x="939615.316903196" y="1912259.6494911409" />
    <node id="v_365" x="939611.469740403" y="1912268.8777915912" />
    <node id="v_366" x="939607.6314598488" y="1912278.106030295" />
    <node id="v_367" x="939603.7931879582" y="1912287.3342709872" />
    <node id="v_368" x="939599.9549327013" y="1912296.5636230558" />
    <node id="v_369" x="939596.3391858587" y="1912305.8834628405" />
    <node id="v_370" x="939592.8035321295" y="1912315.2337935849" />
    <node id="v_371" x="939589.2767600198" y="1912324.5840622832" />
    <node id="v_372" x="939585.74112251" y="1912333.9343964579" />
    <node id="v_373" x="939582.0452122436" y="1912343.2082227136" />
    <node id="v_374" x="939577.4766637008" y="1912352.0645126847" />
    <node id="v_375" x="939574.3058047186" y="1912361.5431459453" />
    <node id="v_376" x="939571.1349611268" y="1912371.022890021" />
    <node id="v_377" x="939567.9641249451" y="1912380.5026355186" />
    <node id="v_378" x="939564.7932961825" y="1912389.9823824356" />
    <node id="v_379" x="939561.6224748323" y="1912399.462130776" />
    <node id="v_380" x="939558.4516529209" y="1912408.9407711432" />
    <node id="v_381" x="939555.2808463997" y="1912418.420522325" />
    <node id="v_382" x="939552.1100472956" y="1912427.9002749291" />
    <node id="v_383" x="939548.9392556017" y="1912437.3800289545" />
    <node id="v_384" x="939545.768471327" y="1912446.859784398" />
    <node id="v_385" x="939542.6065837902" y="1912456.3416962384" />
    <node id="v_386" x="939539.4625062182" y="1912465.8312476107" />
    <node id="v_387" x="939536.3184280323" y="1912475.319690991" />
    <node id="v_388" x="939533.1743651858" y="1912484.8092451645" />
    <node id="v_389" x="939530.0391830334" y="1912494.2987369115" />
    <node id="v_390" x="939526.8951269226" y="1912503.787184492" />
    <node id="v_391" x="939523.6354298637" y="1912513.2354157672" />
    <node id="v_392" x="939520.0465663364" y="1912522.5661960698" />
    <node id="v_393" x="939516.4665843112" y="1912531.8969142945" />
    <node id="v_394" x="939512.8777292195" y="1912541.2265887272" />
    <node id="v_395" x="939509.9248324786" y="1912548.911920839" />
    <node id="v_396" x="939508.5224279123" y="1912552.5621195962" />
    <node id="v_397" x="939524.2452384987" y="1912560.9973126012" />
    <node id="v_398" x="939533.0553320225" y="1912565.722326381" />
    <node id="v_399" x="939541.8654235101" y="1912570.4484586974" />
    <node id="v_400" x="939550.6754970055" y="1912575.1734907653" />
    <node id="v_401" x="939559.4766872523" y="1912579.8985957722" />
    <node id="v_402" x="939568.2867487029" y="1912584.6247555087" />
    <node id="v_403" x="939577.0967921668" y="1912589.349814996" />
    <node id="v_404" x="939585.9068335909" y="1912594.0759930203" />
    <node id="v_405" x="939594.7168649981" y="1912598.802180188" />
    <node id="v_406" x="939603.51801318" y="1912603.5284402505" />
    <node id="v_407" x="939612.328016593" y="1912608.2535363017" />
    <node id="v_408" x="939621.138017964" y="1912612.9797508903" />
    <node id="v_409" x="939629.9480093179" y="1912617.7059746233" />
    <node id="v_410" x="939638.7491174669" y="1912622.4322712116" />
    <node id="v_411" x="939647.559088796" y="1912627.158513221" />
    <node id="v_412" x="939656.3690421488" y="1912631.8836549814" />
    <node id="v_413" x="939665.1789934493" y="1912636.609915278" />
    <node id="v_414" x="939673.988934737" y="1912641.3361847168" />
    <node id="v_415" x="939682.7899928411" y="1912646.062526968" />
    <node id="v_416" x="939691.5999141041" y="1912650.7888146865" />
    <node id="v_417" x="939700.4098173942" y="1912655.514002155" />
    <node id="v_418" x="939709.7523717067" y="1912659.03606269" />
    <node id="v_419" x="939719.1647576308" y="1912662.3978718724" />
    <node id="v_420" x="939728.577135859" y="1912665.7596915169" />
    <node id="v_421" x="939737.9895063868" y="1912669.121521623" />
    <node id="v_422" x="939747.4107344047" y="1912672.482189199" />
    <node id="v_423" x="939756.8230895337" y="1912675.844040239" />
    <node id="v_424" x="939766.2354369644" y="1912679.2059017422" />
    <node id="v_425" x="939775.6477687511" y="1912682.5666643155" />
    <node id="v_426" x="939785.0601007867" y="1912685.9285467425" />
    <node id="v_427" x="939794.4724171809" y="1912689.2893302387" />
    <node id="v_428" x="939803.7624645173" y="1912692.925033887" />
    <node id="v_429" x="939812.467147854" y="1912697.8419158768" />
    <node id="v_430" x="939821.1718209097" y="1912702.758806794" />
    <node id="v_431" x="939829.8676185281" y="1912707.6768795392" />
    <node id="v_432" x="939838.5722710257" y="1912712.5937882941" />
    <node id="v_433" x="939847.4169615076" y="1912717.2412168984" />
    <node id="v_434" x="939856.4367384089" y="1912721.5567858343" />
    <node id="v_435" x="939865.4476328378" y="1912725.872427837" />
    <node id="v_436" x="939874.4673909633" y="1912730.1880159483" />