<?xml version="1.0" encoding="utf-8"?>
<!DOCTYPE population SYSTEM "http://www.matsim.org/files/dtd/population_v6.dtd">

<population>



<!-- ====================================================================== -->

	<person id="base_trip1.0_rule1_person_1005">
		<attributes>
			<attribute name="destination_h3" class="java.lang.String">8930e038ad3ffff</attribute>
			<attribute name="destination_zone" class="java.lang.Integer">55</attribute>
			<attribute name="origin_h3" class="java.lang.String">8930e038e4fffff</attribute>
			<attribute name="origin_zone" class="java.lang.Integer">50</attribute>
			<attribute name="original_request_idx" class="java.lang.Integer">1005</attribute>
			<attribute name="request_hour" class="java.lang.Integer">14</attribute>
		</attributes>
		<plan selected="yes">
			<activity type="home" link="walk_1284" x="939922.4175608548" y="1912596.6351208438" end_time="14:58:16" >
			</activity>
			<leg mode="drt">
			</leg>
			<activity type="work" link="walk_3498" x="940522.704424424" y="1912591.2963797168" start_time="15:08:16" end_time="15:58:16" >
			</activity>
			<leg mode="drt">
			</leg>
			<activity type="home" link="walk_1284" x="939922.4175608548" y="1912596.6351208438" start_time="16:08:16" >
			</activity>
		</plan>

	</person>

<!-- ====================================================================== -->

	<person id="base_trip1.0_rule1_person_101">
		<attributes>
			<attribute name="destination_h3" class="java.lang.String">8930e038ad3ffff</attribute>
			<attribute name="destination_zone" class="java.lang.Integer">55</attribute>
			<attribute name="origin_h3" class="java.lang.String">8930e038a73ffff</attribute>
			<attribute name="origin_zone" class="java.lang.Integer">64</attribute>
			<attribute name="original_request_idx" class="java.lang.Integer">101</attribute>
			<attribute name="request_hour" class="java.lang.Integer">7</attribute>
		</attributes>
		<plan selected="yes">
			<activity type="home" link="car_1466" x="941559.9213545684" y="1911893.0611568913" end_time="07:45:39" >
			</activity>
			<leg mode="drt">
			</leg>
			<activity type="work" link="car_918" x="940519.1176293438" y="1912507.5386970036" start_time="07:55:39" end_time="08:45:39" >
			</activity>
			<leg mode="drt">
			</leg>
			<activity type="home" link="car_1466" x="941559.9213545684" y="1911893.0611568913" start_time="08:55:39" >
			</activity>
		</plan>

	</person>

<!-- ====================================================================== -->

	<person id="base_trip1.0_rule1_person_1015">
		<attributes>
			<attribute name="destination_h3" class="java.lang.String">8930e039d27ffff</attribute>
			<attribute name="destination_zone" class="java.lang.Integer">32</attribute>
			<attribute name="origin_h3" class="java.lang.String">8930e038e4bffff</attribute>
			<attribute name="origin_zone" class="java.lang.Integer">51</attribute>
			<attribute name="original_request_idx" class="java.lang.Integer">1015</attribute>
			<attribute name="request_hour" class="java.lang.Integer">15</attribute>
		</attributes>
		<plan selected="yes">
			<activity type="home" link="walk_6898" x="939663.0264794114" y="1912600.674906533" end_time="15:04:19" >
			</activity>
			<leg mode="drt">
			</leg>
			<activity type="work" link="walk_9326" x="940739.5862835627" y="1911564.8040212798" start_time="15:14:19" end_time="16:04:19" >
			</activity>
			<leg mode="drt">
			</leg>
			<activity type="home" link="walk_6898" x="939663.0264794114" y="1912600.674906533" start_time="16:14:19" >
			</activity>
		</plan>

	</person>

<!-- ====================================================================== -->

	<person id="base_trip1.0_rule1_person_1024">
		<attributes>
			<attribute name="destination_h3" class="java.lang.String">8930e038ac3ffff</attribute>
			<attribute name="destination_zone" class="java.lang.Integer">59</attribute>
			<attribute name="origin_h3" class="java.lang.String">8930e039d23ffff</attribute>
			<attribute name="origin_zone" class="java.lang.Integer">33</attribute>
			<attribute name="original_request_idx" class="java.lang.Integer">1024</attribute>
			<attribute name="request_hour" class="java.lang.Integer">15</attribute>
		</attributes>
		<plan selected="yes">
			<activity type="home" link="walk_8156" x="940549.8565992189" y="1911618.5503219955" end_time="15:08:09" >
			</activity>
			<leg mode="drt">
			</leg>
			<activity type="work" link="car_1115" x="940840.4998566814" y="1912204.2190900673" start_time="15:18:09" end_time="16:08:09" >
			</activity>
			<leg mode="drt">
			</leg>
			<activity type="home" link="walk_8156" x="940549.8565992189" y="1911618.5503219955" start_time="16:18:09" >
			</activity>
		</plan>

	</person>

<!-- ====================================================================== -->

	<person id="base_trip1.0_rule1_person_1036">
		<attributes>
			<attribute name="destination_h3" class="java.lang.String">8930e038a9bffff</attribute>
			<attribute name="destination_zone" class="java.lang.Integer">60</attribute>
			<attribute name="origin_h3" class="java.lang.String">8930e038e4bffff</attribute>
			<attribute name="origin_zone" class="java.lang.Integer">51</attribute>
			<attribute name="original_request_idx" class="java.lang.Integer">1036</attribute>
			<attribute name="request_hour" class="java.lang.Integer">15</attribute>
		</attributes>
		<plan selected="yes">
			<activity type="home" link="walk_6896" x="939653.5559335116" y="1912549.1251214196" end_time="15:12:57" >
			</activity>
			<leg mode="drt">
			</leg>
			<activity type="work" link="walk_4552" x="940806.7922811948" y="1912878.0173440238" start_time="15:22:57" end_time="16:12:57" >
			</activity>
			<leg mode="drt">
			</leg>
			<activity type="home" link="walk_6896" x="939653.5559335116" y="1912549.1251214196" start_time="16:22:57" >
			</activity>
		</plan>

	</person>

<!-- ====================================================================== -->

	<person id="base_trip1.0_rule1_person_1040">
		<attributes>
			<attribute name="destination_h3" class="java.lang.String">8930e038acfffff</attribute>
			<attribute name="destination_zone" class="java.lang.Integer">56</attribute>
			<attribute name="origin_h3" class="java.lang.String">8930e038acfffff</attribute>
			<attribute name="origin_zone" class="java.lang.Integer">56</attribute>
			<attribute name="original_request_idx" class="java.lang.Integer">1040</attribute>
			<attribute name="request_hour" class="java.lang.Integer">15</attribute>
		</attributes>
		<plan selected="yes">
			<activity type="home" link="walk_4914" x="940919.6823514275" y="1912187.9093029655" end_time="15:14:34" >
			</activity>
			<leg mode="drt">
			</leg>
			<activity type="work" link="walk_4914" x="940910.1170913929" y="1912185.3884296024" start_time="15:24:34" end_time="16:14:34" >
			</activity>
			<leg mode="drt">
			</leg>
			<activity type="home" link="walk_4914" x="940919.6823514275" y="1912187.9093029655" start_time="16:24:34" >
			</activity>
		</plan>

	</person>

<!-- ====================================================================== -->

	<person id="base_trip1.0_rule1_person_1044">
		<attributes>
			<attribute name="destination_h3" class="java.lang.String">8930e038e4fffff</attribute>
			<attribute name="destination_zone" class="java.lang.Integer">50</attribute>
			<attribute name="origin_h3" class="java.lang.String">8930e038ad3ffff</attribute>
			<attribute name="origin_zone" class="java.lang.Integer">55</attribute>
			<attribute name="original_request_idx" class="java.lang.Integer">1044</attribute>
			<attribute name="request_hour" class="java.lang.Integer">15</attribute>
		</attributes>
		<plan selected="yes">
			<activity type="home" link="car_916" x="940490.5000574032" y="1912513.7017473555" end_time="15:16:57" >
			</activity>
			<leg mode="drt">
			</leg>
			<activity type="work" link="walk_1288" x="939960.6015878052" y="1912624.4961501646" start_time="15:26:57" end_time="16:16:57" >
			</activity>
			<leg mode="drt">
			</leg>
			<activity type="home" link="car_916" x="940490.5000574032" y="1912513.7017473555" start_time="16:26:57" >
			</activity>
		</plan>

	</person>

<!-- ====================================================================== -->

	<person id="base_trip1.0_rule1_person_1045">
		<attributes>
			<attribute name="destination_h3" class="java.lang.String">8930e038e4fffff</attribute>
			<attribute name="destination_zone" class="java.lang.Integer">50</attribute>
			<attribute name="origin_h3" class="java.lang.String">8930e038a0bffff</attribute>
			<attribute name="origin_zone" class="java.lang.Integer">71</attribute>
			<attribute name="original_request_idx" class="java.lang.Integer">1045</attribute>
			<attribute name="request_hour" class="java.lang.Integer">15</attribute>
		</attributes>
		<plan selected="yes">
			<activity type="home" link="walk_6084" x="941317.407517065" y="1912057.6648685536" end_time="15:14:49" >
			</activity>
			<leg mode="drt">
			</leg>
			<activity type="work" link="walk_7138" x="939787.7835950673" y="1912597.3274749261" start_time="15:24:49" end_time="16:14:49" >
			</activity>
			<leg mode="drt">
			</leg>
			<activity type="home" link="walk_6084" x="941317.407517065" y="1912057.6648685536" start_time="16:24:49" >
			</activity>
		</plan>

	</person>

<!-- ====================================================================== -->

	<person id="base_trip1.0_rule1_person_1046">
		<attributes>
			<attribute name="destination_h3" class="java.lang.String">8930e038e4fffff</attribute>
			<attribute name="destination_zone" class="java.lang.Integer">50</attribute>
			<attribute name="origin_h3" class="java.lang.String">8930e038a13ffff</attribute>
			<attribute name="origin_zone" class="java.lang.Integer">70</attribute>
			<attribute name="original_request_idx" class="java.lang.Integer">1046</attribute>
			<attribute name="request_hour" class="java.lang.Integer">15</attribute>
		</attributes>
		<plan selected="yes">
			<activity type="home" link="walk_4680" x="941157.4028640843" y="1912472.9232253889" end_time="15:16:55" >
			</activity>
			<leg mode="drt">
			</leg>
			<activity type="work" link="walk_7140" x="939788.2693016934" y="1912645.3299372953" start_time="15:26:55" end_time="16:16:55" >
			</activity>
			<leg mode="drt">
			</leg>
			<activity type="home" link="walk_4680" x="941157.4028640843" y="1912472.9232253889" start_time="16:26:55" >
			</activity>
		</plan>

	</person>

<!-- ====================================================================== -->

	<person id="base_trip1.0_rule1_person_1048">
		<attributes>
			<attribute name="destination_h3" class="java.lang.String">8930e038ad3ffff</attribute>
			<attribute name="destination_zone" class="java.lang.Integer">55</attribute>
			<attribute name="origin_h3" class="java.lang.String">8930e038e4bffff</attribute>
			<attribute name="origin_zone" class="java.lang.Integer">51</attribute>
			<attribute name="original_request_idx" class="java.lang.Integer">1048</attribute>
			<attribute name="request_hour" class="java.lang.Integer">15</attribute>
		</attributes>
		<plan selected="yes">
			<activity type="home" link="walk_6900" x="939688.1675786972" y="1912603.0747972317" end_time="15:17:44" >
			</activity>
			<leg mode="drt">
			</leg>
			<activity type="work" link="walk_1586" x="940460.9320675596" y="1912572.5959275917" start_time="15:27:44" end_time="16:17:44" >
			</activity>
			<leg mode="drt">
			</leg>
			<activity type="home" link="walk_6900" x="939688.1675786972" y="1912603.0747972317" start_time="16:27:44" >
			</activity>
		</plan>

	</person>

<!-- ====================================================================== -->

	<person id="base_trip1.0_rule1_person_1049">
		<attributes>
			<attribute name="destination_h3" class="java.lang.String">8930e038ac7ffff</attribute>
			<attribute name="destination_zone" class="java.lang.Integer">58</attribute>
			<attribute name="origin_h3" class="java.lang.String">8930e038a0bffff</attribute>
			<attribute name="origin_zone" class="java.lang.Integer">71</attribute>
			<attribute name="original_request_idx" class="java.lang.Integer">1049</attribute>
			<attribute name="request_hour" class="java.lang.Integer">15</attribute>
		</attributes>
		<plan selected="yes">
			<activity type="home" link="car_1464" x="941528.9124127246" y="1911911.799874869" end_time="15:17:56" >
			</activity>
			<leg mode="drt">
			</leg>
			<activity type="work" link="walk_4860" x="940993.2298778101" y="1912423.7067610906" start_time="15:27:56" end_time="16:17:56" >
			</activity>
			<leg mode="drt">
			</leg>
			<activity type="home" link="car_1464" x="941528.9124127246" y="1911911.799874869" start_time="16:27:56" >
			</activity>
		</plan>

	</person>

<!-- ====================================================================== -->

	<person id="base_trip1.0_rule1_person_1066">
		<attributes>
			<attribute name="destination_h3" class="java.lang.String">8930e038a9bffff</attribute>
			<attribute name="destination_zone" class="java.lang.Integer">60</attribute>
			<attribute name="origin_h3" class="java.lang.String">8930e038e4fffff</attribute>
			<attribute name="origin_zone" class="java.lang.Integer">50</attribute>
			<attribute name="original_request_idx" class="java.lang.Integer">1066</attribute>
			<attribute name="request_hour" class="java.lang.Integer">15</attribute>
		</attributes>
		<plan selected="yes">
			<activity type="home" link="walk_1278" x="939868.3600725015" y="1912584.182143621" end_time="15:23:51" >
			</activity>
			<leg mode="drt">
			</leg>
			<activity type="work" link="walk_11200" x="940696.6981216759" y="1912886.4003514426" start_time="15:33:51" end_time="16:23:51" >
			</activity>
			<leg mode="drt">
			</leg>
			<activity type="home" link="walk_1278" x="939868.3600725015" y="1912584.182143621" start_time="16:33:51" >
			</activity>
		</plan>

	</person>

<!-- ====================================================================== -->

	<person id="base_trip1.0_rule1_person_1070">
		<attributes>
			<attribute name="destination_h3" class="java.lang.String">8930e039d27ffff</attribute>
			<attribute name="destination_zone" class="java.lang.Integer">32</attribute>
			<attribute name="origin_h3" class="java.lang.String">8930e038acfffff</attribute>
			<attribute name="origin_zone" class="java.lang.Integer">56</attribute>
			<attribute name="original_request_idx" class="java.lang.Integer">1070</attribute>
			<attribute name="request_hour" class="java.lang.Integer">15</attribute>
		</attributes>
		<plan selected="yes">
			<activity type="home" link="walk_5432" x="941019.7733202251" y="1912168.3335857023" end_time="15:27:40" >
			</activity>
			<leg mode="drt">
			</leg>
			<activity type="work" link="walk_3332" x="940694.8647159955" y="1911546.181151831" start_time="15:37:40" end_time="16:27:40" >
			</activity>
			<leg mode="drt">
			</leg>
			<activity type="home" link="walk_5432" x="941019.7733202251" y="1912168.3335857023" start_time="16:37:40" >
			</activity>
		</plan>

	</person>

<!-- ====================================================================== -->

	<person id="base_trip1.0_rule1_person_1076">
		<attributes>
			<attribute name="destination_h3" class="java.lang.String">8930e038e4fffff</attribute>
			<attribute name="destination_zone" class="java.lang.Integer">50</attribute>
			<attribute name="origin_h3" class="java.lang.String">8930e038acfffff</attribute>
			<attribute name="origin_zone" class="java.lang.Integer">56</attribute>
			<attribute name="original_request_idx" class="java.lang.Integer">1076</attribute>
			<attribute name="request_hour" class="java.lang.Integer">15</attribute>
		</attributes>
		<plan selected="yes">
			<activity type="home" link="walk_4916" x="940904.695195053" y="1912223.495977972" end_time="15:28:10" >
			</activity>
			<leg mode="drt">
			</leg>
			<activity type="work" link="car_44" x="939869.7471683964" y="1912764.3219315081" start_time="15:38:10" end_time="16:28:10" >
			</activity>
			<leg mode="drt">
			</leg>
			<activity type="home" link="walk_4916" x="940904.695195053" y="1912223.495977972" start_time="16:38:10" >
			</activity>
		</plan>

	</person>

<!-- ====================================================================== -->

	<person id="base_trip1.0_rule1_person_1077">
		<attributes>
			<attribute name="destination_h3" class="java.lang.String">8930e039d3bffff</attribute>
			<attribute name="destination_zone" class="java.lang.Integer">27</attribute>
			<attribute name="origin_h3" class="java.lang.String">8930e039d23ffff</attribute>
			<attribute name="origin_zone" class="java.lang.Integer">33</attribute>
			<attribute name="original_request_idx" class="java.lang.Integer">1077</attribute>
			<attribute name="request_hour" class="java.lang.Integer">15</attribute>
		</attributes>
		<plan selected="yes">
			<activity type="home" link="walk_7796" x="940393.2501515227" y="1911449.8643039938" end_time="15:28:43" >
			</activity>
			<leg mode="drt">
			</leg>
			<activity type="work" link="car_775" x="940186.9761398232" y="1911524.500897009" start_time="15:38:43" end_time="16:28:43" >
			</activity>
			<leg mode="drt">
			</leg>
			<activity type="home" link="walk_7796" x="940393.2501515227" y="1911449.8643039938" start_time="16:38:43" >
			</activity>
		</plan>

	</person>

<!-- ====================================================================== -->

	<person id="base_trip1.0_rule1_person_1080">
		<attributes>
			<attribute name="destination_h3" class="java.lang.String">8930e039da7ffff</attribute>
			<attribute name="destination_zone" class="java.lang.Integer">7</attribute>
			<attribute name="origin_h3" class="java.lang.String">8930e038e4fffff</attribute>
			<attribute name="origin_zone" class="java.lang.Integer">50</attribute>
			<attribute name="original_request_idx" class="java.lang.Integer">1080</attribute>
			<attribute name="request_hour" class="java.lang.Integer">15</attribute>
		</attributes>
		<plan selected="yes">
			<activity type="home" link="walk_1306" x="939975.850355287" y="1912741.5021550297" end_time="15:30:01" >
			</activity>
			<leg mode="drt">
			</leg>
			<activity type="work" link="car_1503" x="940436.39290479" y="1912330.3231058442" start_time="15:40:01" end_time="16:30:01" >
			</activity>
			<leg mode="drt">
			</leg>
			<activity type="home" link="walk_1306" x="939975.850355287" y="1912741.5021550297" start_time="16:40:01" >
			</activity>
		</plan>

	</person>

<!-- ====================================================================== -->

	<person id="base_trip1.0_rule1_person_1083">
		<attributes>
			<attribute name="destination_h3" class="java.lang.String">8930e038e67ffff</attribute>
			<attribute name="destination_zone" class="java.lang.Integer">48</attribute>
			<attribute name="origin_h3" class="java.lang.String">8930e038e67ffff</attribute>
			<attribute name="origin_zone" class="java.lang.Integer">48</attribute>
			<attribute name="original_request_idx" class="java.lang.Integer">1083</attribute>
			<attribute name="request_hour" class="java.lang.Integer">15</attribute>
		</attributes>
		<plan selected="yes">
			<activity type="home" link="walk_3380" x="940515.5830799736" y="1912967.3066689286" end_time="15:33:11" >
			</activity>
			<leg mode="drt">
			</leg>
			<activity type="work" link="walk_3396" x="940483.4363378475" y="1913004.3263109657" start_time="15:43:11" end_time="16:33:11" >
			</activity>
			<leg mode="drt">
			</leg>
			<activity type="home" link="walk_3380" x="940515.5830799736" y="1912967.3066689286" start_time="16:43:11" >
			</activity>
		</plan>

	</person>

<!-- ====================================================================== -->

	<person id="base_trip1.0_rule1_person_1086">
		<attributes>
			<attribute name="destination_h3" class="java.lang.String">8930e039d07ffff</attribute>
			<attribute name="destination_zone" class="java.lang.Integer">38</attribute>
			<attribute name="origin_h3" class="java.lang.String">8930e038e4fffff</attribute>
			<attribute name="origin_zone" class="java.lang.Integer">50</attribute>
			<attribute name="original_request_idx" class="java.lang.Integer">1086</attribute>
			<attribute name="request_hour" class="java.lang.Integer">15</attribute>
		</attributes>
		<plan selected="yes">
			<activity type="home" link="walk_432" x="939802.502255901" y="1912656.0298550844" end_time="15:35:07" >
			</activity>
			<leg mode="drt">
			</leg>
			<activity type="work" link="car_803" x="940032.5133699985" y="1911749.671266551" start_time="15:45:07" end_time="16:35:07" >
			</activity>
			<leg mode="drt">
			</leg>
			<activity type="home" link="walk_432" x="939802.502255901" y="1912656.0298550844" start_time="16:45:07" >
			</activity>
		</plan>

	</person>

<!-- ====================================================================== -->

	<person id="base_trip1.0_rule1_person_1090">
		<attributes>
			<attribute name="destination_h3" class="java.lang.String">8930e039dabffff</attribute>
			<attribute name="destination_zone" class="java.lang.Integer">6</attribute>
			<attribute name="origin_h3" class="java.lang.String">8930e038e4fffff</attribute>
			<attribute name="origin_zone" class="java.lang.Integer">50</attribute>
			<attribute name="original_request_idx" class="java.lang.Integer">1090</attribute>
			<attribute name="request_hour" class="java.lang.Integer">15</attribute>
		</attributes>
		<plan selected="yes">
			<activity type="home" link="car_459" x="939986.2937836258" y="1912769.7102158559" end_time="15:39:02" >
			</activity>
			<leg mode="drt">
			</leg>
			<activity type="work" link="walk_1018" x="940020.298598578" y="1911893.6690919388" start_time="15:49:02" end_time="16:39:02" >
			</activity>
			<leg mode="drt">
			</leg>
			<activity type="home" link="car_459" x="939986.2937836258" y="1912769.7102158559" start_time="16:49:02" >
			</activity>
		</plan>

	</person>

<!-- ====================================================================== -->

	<person id="base_trip1.0_rule1_person_1097">
		<attributes>
			<attribute name="destination_h3" class="java.lang.String">8930e038e4fffff</attribute>
			<attribute name="destination_zone" class="java.lang.Integer">50</attribute>
			<attribute name="origin_h3" class="java.lang.String">8930e038e4fffff</attribute>
			<attribute name="origin_zone" class="java.lang.Integer">50</attribute>
			<attribute name="original_request_idx" class="java.lang.Integer">1097</attribute>
			<attribute name="request_hour" class="java.lang.Integer">15</attribute>
		</attributes>
		<plan selected="yes">
			<activity type="home" link="car_56" x="939992.5577647627" y="1912786.7552240964" end_time="15:39:58" >
			</activity>
			<leg mode="drt">
			</leg>
			<activity type="work" link="car_55" x="939968.954824306" y="1912798.3750940925" start_time="15:49:58" end_time="16:39:58" >
			</activity>
			<leg mode="drt">
			</leg>
			<activity type="home" link="car_56" x="939992.5577647627" y="1912786.7552240964" start_time="16:49:58" >
			</activity>
		</plan>

	</person>

<!-- ====================================================================== -->

	<person id="base_trip1.0_rule1_person_1102">
		<attributes>
			<attribute name="destination_h3" class="java.lang.String">8930e039d07ffff</attribute>
			<attribute name="destination_zone" class="java.lang.Integer">38</attribute>
			<attribute name="origin_h3" class="java.lang.String">8930e038acfffff</attribute>
			<attribute name="origin_zone" class="java.lang.Integer">56</attribute>
			<attribute name="original_request_idx" class="java.lang.Integer">1102</attribute>
			<attribute name="request_hour" class="java.lang.Integer">15</attribute>
		</attributes>
		<plan selected="yes">
			<activity type="home" link="car_1305" x="940875.9028750262" y="1912052.4973429544" end_time="15:40:50" >
			</activity>
			<leg mode="drt">
			</leg>
			<activity type="work" link="car_718" x="940104.4525687747" y="1911599.0760050192" start_time="15:50:50" end_time="16:40:50" >
			</activity>
			<leg mode="drt">
			</leg>
			<activity type="home" link="car_1305" x="940875.9028750262" y="1912052.4973429544" start_time="16:50:50" >
			</activity>
		</plan>

	</person>

<!-- ====================================================================== -->

	<person id="base_trip1.0_rule1_person_1107">
		<attributes>
			<attribute name="destination_h3" class="java.lang.String">8930e038acfffff</attribute>
			<attribute name="destination_zone" class="java.lang.Integer">56</attribute>
			<attribute name="origin_h3" class="java.lang.String">8930e038e4bffff</attribute>
			<attribute name="origin_zone" class="java.lang.Integer">51</attribute>
			<attribute name="original_request_idx" class="java.lang.Integer">1107</attribute>
			<attribute name="request_hour" class="java.lang.Integer">15</attribute>
		</attributes>
		<plan selected="yes">
			<activity type="home" link="walk_7124" x="939604.074873315" y="1912473.2378915546" end_time="15:43:17" >
			</activity>
			<leg mode="drt">
			</leg>
			<activity type="work" link="walk_11074" x="940938.8643807289" y="1912111.4846902506" start_time="15:53:17" end_time="16:43:17" >
			</activity>
			<leg mode="drt">
			</leg>
			<activity type="home" link="walk_7124" x="939604.074873315" y="1912473.2378915546" start_time="16:53:17" >
			</activity>
		</plan>

	</person>

<!-- ====================================================================== -->

	<person id="base_trip1.0_rule1_person_1110">
		<attributes>
			<attribute name="destination_h3" class="java.lang.String">8930e038a0bffff</attribute>
			<attribute name="destination_zone" class="java.lang.Integer">71</attribute>
			<attribute name="origin_h3" class="java.lang.String">8930e038e4bffff</attribute>
			<attribute name="origin_zone" class="java.lang.Integer">51</attribute>
			<attribute name="original_request_idx" class="java.lang.Integer">1110</attribute>
			<attribute name="request_hour" class="java.lang.Integer">15</attribute>
		</attributes>
		<plan selected="yes">
			<activity type="home" link="walk_6900" x="939725.2152922775" y="1912566.9398097184" end_time="15:43:58" >
			</activity>
			<leg mode="drt">
			</leg>
			<activity type="work" link="walk_5944" x="941463.5620382242" y="1911999.7029570362" start_time="15:53:58" end_time="16:43:58" >
			</activity>
			<leg mode="drt">
			</leg>
			<activity type="home" link="walk_6900" x="939725.2152922775" y="1912566.9398097184" start_time="16:53:58" >
			</activity>
		</plan>

	</person>

<!-- ====================================================================== -->

	<person id="base_trip1.0_rule1_person_1112">
		<attributes>
			<attribute name="destination_h3" class="java.lang.String">8930e038acfffff</attribute>
			<attribute name="destination_zone" class="java.lang.Integer">56</attribute>
			<attribute name="origin_h3" class="java.lang.String">8930e038ac7ffff</attribute>
			<attribute name="origin_zone" class="java.lang.Integer">58</attribute>
			<attribute name="original_request_idx" class="java.lang.Integer">1112</attribute>
			<attribute name="request_hour" class="java.lang.Integer">15</attribute>
		</attributes>
		<plan selected="yes">
			<activity type="home" link="walk_4206" x="941038.7092402407" y="1912357.7144965" end_time="15:43:26" >
			</activity>
			<leg mode="drt">
			</leg>
			<activity type="work" link="walk_5520" x="940908.8926841966" y="1911965.2180004637" start_time="15:53:26" end_time="16:43:26" >
			</activity>
			<leg mode="drt">
			</leg>
			<activity type="home" link="walk_4206" x="941038.7092402407" y="1912357.7144965" start_time="16:53:26" >
			</activity>
		</plan>

	</person>

<!-- ====================================================================== -->

	<person id="base_trip1.0_rule1_person_1119">
		<attributes>
			<attribute name="destination_h3" class="java.lang.String">8930e038ad3ffff</attribute>
			<attribute name="destination_zone" class="java.lang.Integer">55</attribute>
			<attribute name="origin_h3" class="java.lang.String">8930e038e4fffff</attribute>
			<attribute name="origin_zone" class="java.lang.Integer">50</attribute>
			<attribute name="original_request_idx" class="java.lang.Integer">1119</attribute>
			<attribute name="request_hour" class="java.lang.Integer">15</attribute>
		</attributes>
		<plan selected="yes">
			<activity type="home" link="car_32" x="939782.7012346657" y="1912702.7131933065" end_time="15:48:59" >
			</activity>
			<leg mode="drt">
			</leg>
			<activity type="work" link="walk_7426" x="940630.2129311333" y="1912526.5236937702" start_time="15:58:59" end_time="16:48:59" >
			</activity>
			<leg mode="drt">
			</leg>
			<activity type="home" link="car_32" x="939782.7012346657" y="1912702.7131933065" start_time="16:58:59" >
			</activity>
		</plan>

	</person>

<!-- ====================================================================== -->

	<person id="base_trip1.0_rule1_person_113">
		<attributes>
			<attribute name="destination_h3" class="java.lang.String">8930e038e4fffff</attribute>
			<attribute name="destination_zone" class="java.lang.Integer">50</attribute>
			<attribute name="origin_h3" class="java.lang.String">8930e038acfffff</attribute>
			<attribute name="origin_zone" class="java.lang.Integer">56</attribute>
			<attribute name="original_request_idx" class="java.lang.Integer">113</attribute>
			<attribute name="request_hour" class="java.lang.Integer">7</attribute>
		</attributes>
		<plan selected="yes">
			<activity type="home" link="walk_4916" x="940949.132315784" y="1912232.1527555021" end_time="07:54:11" >
			</activity>
			<leg mode="drt">
			</leg>
			<activity type="work" link="car_57" x="939986.4378688324" y="1912810.402671952" start_time="08:04:11" end_time="08:54:11" >
			</activity>
			<leg mode="drt">
			</leg>
			<activity type="home" link="walk_4916" x="940949.132315784" y="1912232.1527555021" start_time="09:04:11" >
			</activity>
		</plan>

	</person>

<!-- ====================================================================== -->

	<person id="base_trip1.0_rule1_person_1132">