<?xml version="1.0" encoding="utf-8"?>
<!DOCTYPE population SYSTEM "http://www.matsim.org/files/dtd/population_v6.dtd">

<population>



<!-- ====================================================================== -->

	<person id="1">
		<plan selected="yes">
			<activity type="home" link="walk_3832" x="939375.1905315473" y="1910683.9407948982" end_time="09:25:19" >
			</activity>
			<leg mode="drt">
			</leg>
			<activity type="work" link="walk_320" x="941266.0133363109" y="1910481.3009713602" max_dur="08:00:00" >
			</activity>
			<leg mode="drt">
			</leg>
			<activity type="home" link="walk_3832" x="939375.1905315473" y="1910683.9407948982" >
			</activity>
		</plan>

	</person>

<!-- ====================================================================== -->

	<person id="10">
		<plan selected="yes">
			<activity type="home" link="walk_10498" x="939391.8627172757" y="1910657.8091249033" end_time="12:19:36" >
			</activity>
			<leg mode="drt">
			</leg>
			<activity type="work" link="car_1490" x="941651.0111399122" y="1911521.7716579658" max_dur="08:00:00" >
			</activity>
			<leg mode="drt">
			</leg>
			<activity type="home" link="walk_10498" x="939391.8627172757" y="1910657.8091249033" >
			</activity>
		</plan>

	</person>

<!-- ====================================================================== -->

	<person id="100">
		<plan selected="yes">
			<activity type="home" link="walk_3940" x="939679.1921328708" y="1910794.495012404" end_time="11:12:23" >
			</activity>
			<leg mode="drt">
			</leg>
			<activity type="work" link="walk_3784" x="941695.3892829024" y="1910882.0102455728" max_dur="08:00:00" >
			</activity>
			<leg mode="drt">
			</leg>
			<activity type="home" link="walk_3940" x="939679.1921328708" y="1910794.495012404" >
			</activity>
		</plan>

	</person>

<!-- ====================================================================== -->

	<person id="1000">
		<plan selected="yes">
			<activity type="home" link="walk_376" x="940468.6140774356" y="1912123.0376994503" end_time="08:22:33" >
			</activity>
			<leg mode="drt">
			</leg>
			<activity type="work" link="walk_3976" x="939807.1551921548" y="1911211.4886945903" max_dur="08:00:00" >
			</activity>
			<leg mode="drt">
			</leg>
			<activity type="home" link="walk_376" x="940468.6140774356" y="1912123.0376994503" >
			</activity>
		</plan>

	</person>

<!-- ====================================================================== -->

	<person id="1001">
		<plan selected="yes">
			<activity type="home" link="walk_648" x="940325.5436497561" y="1912003.22805431" end_time="09:51:02" >
			</activity>
			<leg mode="drt">
			</leg>
			<activity type="work" link="walk_7214" x="940108.3718847912" y="1911176.3811650064" max_dur="08:00:00" >
			</activity>
			<leg mode="drt">
			</leg>
			<activity type="home" link="walk_648" x="940325.5436497561" y="1912003.22805431" >
			</activity>
		</plan>

	</person>

<!-- ====================================================================== -->

	<person id="1002">
		<plan selected="yes">
			<activity type="home" link="walk_7314" x="940354.8742378333" y="1912210.7215720005" end_time="10:03:42" >
			</activity>
			<leg mode="drt">
			</leg>
			<activity type="work" link="walk_1204" x="939732.5810774607" y="1911196.8134318464" max_dur="08:00:00" >
			</activity>
			<leg mode="drt">
			</leg>
			<activity type="home" link="walk_7314" x="940354.8742378333" y="1912210.7215720005" >
			</activity>
		</plan>

	</person>

<!-- ====================================================================== -->

	<person id="1003">
		<plan selected="yes">
			<activity type="home" link="walk_1666" x="940631.2557211148" y="1912012.0250150166" end_time="11:45:12" >
			</activity>
			<leg mode="drt">
			</leg>
			<activity type="work" link="walk_2690" x="939959.2824590375" y="1911226.870964635" max_dur="08:00:00" >
			</activity>
			<leg mode="drt">
			</leg>
			<activity type="home" link="walk_1666" x="940631.2557211148" y="1912012.0250150166" >
			</activity>
		</plan>

	</person>

<!-- ====================================================================== -->

	<person id="1004">
		<plan selected="yes">
			<activity type="home" link="walk_364" x="940481.8088551348" y="1912064.3741527053" end_time="12:27:14" >
			</activity>
			<leg mode="drt">
			</leg>
			<activity type="work" link="walk_1500" x="939945.6897549168" y="1910982.4539647154" max_dur="08:00:00" >
			</activity>
			<leg mode="drt">
			</leg>
			<activity type="home" link="walk_364" x="940481.8088551348" y="1912064.3741527053" >
			</activity>
		</plan>

	</person>

<!-- ====================================================================== -->

	<person id="1005">
		<plan selected="yes">
			<activity type="home" link="walk_366" x="940534.9869177815" y="1912104.4753336043" end_time="13:53:20" >
			</activity>
			<leg mode="drt">
			</leg>
			<activity type="work" link="walk_1900" x="939789.0777476365" y="1911022.443886588" max_dur="08:00:00" >
			</activity>
			<leg mode="drt">
			</leg>
			<activity type="home" link="walk_366" x="940534.9869177815" y="1912104.4753336043" >
			</activity>
		</plan>

	</person>

<!-- ====================================================================== -->

	<person id="1006">
		<plan selected="yes">
			<activity type="home" link="walk_380" x="940413.4543633736" y="1912264.409843173" end_time="14:07:56" >
			</activity>
			<leg mode="drt">
			</leg>
			<activity type="work" link="walk_8436" x="939767.8724107672" y="1911209.4891178494" max_dur="08:00:00" >
			</activity>
			<leg mode="drt">
			</leg>
			<activity type="home" link="walk_380" x="940413.4543633736" y="1912264.409843173" >
			</activity>
		</plan>

	</person>

<!-- ====================================================================== -->

	<person id="1007">
		<plan selected="yes">
			<activity type="home" link="walk_360" x="940507.394048378" y="1912049.388875988" end_time="15:02:43" >
			</activity>
			<leg mode="drt">
			</leg>
			<activity type="work" link="walk_1200" x="939624.1963385809" y="1911110.3778088696" max_dur="08:00:00" >
			</activity>
			<leg mode="drt">
			</leg>
			<activity type="home" link="walk_360" x="940507.394048378" y="1912049.388875988" >
			</activity>
		</plan>

	</person>

<!-- ====================================================================== -->

	<person id="1008">
		<plan selected="yes">
			<activity type="home" link="car_869" x="940252.8813385027" y="1912128.4821075876" end_time="16:39:38" >
			</activity>
			<leg mode="drt">
			</leg>
			<activity type="work" link="walk_8420" x="939813.1945354257" y="1911350.3538343075" max_dur="08:00:00" >
			</activity>
			<leg mode="drt">
			</leg>
			<activity type="home" link="car_869" x="940252.8813385027" y="1912128.4821075876" >
			</activity>
		</plan>

	</person>

<!-- ====================================================================== -->

	<person id="1009">
		<plan selected="yes">
			<activity type="home" link="walk_380" x="940413.8738351443" y="1912278.9230562411" end_time="17:01:31" >
			</activity>
			<leg mode="drt">
			</leg>
			<activity type="work" link="walk_8422" x="939798.4844824685" y="1911336.843517204" max_dur="08:00:00" >
			</activity>
			<leg mode="drt">
			</leg>
			<activity type="home" link="walk_380" x="940413.8738351443" y="1912278.9230562411" >
			</activity>
		</plan>

	</person>

<!-- ====================================================================== -->

	<person id="101">
		<plan selected="yes">
			<activity type="home" link="walk_82" x="939814.7905012239" y="1910891.9761729408" end_time="12:40:05" >
			</activity>
			<leg mode="drt">
			</leg>
			<activity type="work" link="walk_142" x="941802.4464891573" y="1910822.4697541052" max_dur="08:00:00" >
			</activity>
			<leg mode="drt">
			</leg>
			<activity type="home" link="walk_82" x="939814.7905012239" y="1910891.9761729408" >
			</activity>
		</plan>

	</person>

<!-- ====================================================================== -->

	<person id="1010">
		<plan selected="yes">
			<activity type="home" link="walk_648" x="940364.8249768035" y="1912036.9002229415" end_time="18:41:07" >
			</activity>
			<leg mode="drt">
			</leg>
			<activity type="work" link="walk_9098" x="939829.9604117826" y="1911059.8115976786" max_dur="08:00:00" >
			</activity>
			<leg mode="drt">
			</leg>
			<activity type="home" link="walk_648" x="940364.8249768035" y="1912036.9002229415" >
			</activity>
		</plan>

	</person>

<!-- ====================================================================== -->

	<person id="1011">
		<plan selected="yes">
			<activity type="home" link="walk_358" x="940524.4004767037" y="1912059.6802136574" end_time="19:25:22" >
			</activity>
			<leg mode="drt">
			</leg>
			<activity type="work" link="walk_1502" x="939962.315721258" y="1911007.8854462258" max_dur="08:00:00" >
			</activity>
			<leg mode="drt">
			</leg>
			<activity type="home" link="walk_358" x="940524.4004767037" y="1912059.6802136574" >
			</activity>
		</plan>

	</person>

<!-- ====================================================================== -->

	<person id="1012">
		<plan selected="yes">
			<activity type="home" link="walk_1184" x="940501.3674143221" y="1912243.986179855" end_time="20:24:18" >
			</activity>
			<leg mode="drt">
			</leg>
			<activity type="work" link="walk_1204" x="939737.123116837" y="1911164.155135559" max_dur="08:00:00" >
			</activity>
			<leg mode="drt">
			</leg>
			<activity type="home" link="walk_1184" x="940501.3674143221" y="1912243.986179855" >
			</activity>
		</plan>

	</person>

<!-- ====================================================================== -->

	<person id="1013">
		<plan selected="yes">
			<activity type="home" link="walk_1040" x="940415.5821863948" y="1911978.6992373455" end_time="21:00:22" >
			</activity>
			<leg mode="drt">
			</leg>
			<activity type="work" link="walk_1188" x="939939.2807067124" y="1911475.5868752953" max_dur="08:00:00" >
			</activity>
			<leg mode="drt">
			</leg>
			<activity type="home" link="walk_1040" x="940415.5821863948" y="1911978.6992373455" >
			</activity>
		</plan>

	</person>

<!-- ====================================================================== -->

	<person id="1014">
		<plan selected="yes">
			<activity type="home" link="walk_374" x="940471.3498150064" y="1912195.0194466144" end_time="22:31:46" >
			</activity>
			<leg mode="drt">
			</leg>
			<activity type="work" link="walk_1908" x="939818.7805237009" y="1911141.9537403611" max_dur="08:00:00" >
			</activity>
			<leg mode="drt">
			</leg>
			<activity type="home" link="walk_374" x="940471.3498150064" y="1912195.0194466144" >
			</activity>
		</plan>

	</person>

<!-- ====================================================================== -->

	<person id="1015">
		<plan selected="yes">
			<activity type="home" link="walk_374" x="940463.7394304305" y="1912165.3450519266" end_time="07:48:03" >
			</activity>
			<leg mode="drt">
			</leg>
			<activity type="work" link="walk_7548" x="940565.8142183865" y="1911244.7953840843" max_dur="08:00:00" >
			</activity>
			<leg mode="drt">
			</leg>
			<activity type="home" link="walk_374" x="940463.7394304305" y="1912165.3450519266" >
			</activity>
		</plan>

	</person>

<!-- ====================================================================== -->

	<person id="1016">
		<plan selected="yes">
			<activity type="home" link="walk_7316" x="940343.4035200207" y="1912166.683168254" end_time="08:40:16" >
			</activity>
			<leg mode="drt">
			</leg>
			<activity type="work" link="walk_2352" x="941383.1563473936" y="1911216.5321351176" max_dur="08:00:00" >
			</activity>
			<leg mode="drt">
			</leg>
			<activity type="home" link="walk_7316" x="940343.4035200207" y="1912166.683168254" >
			</activity>
		</plan>

	</person>

<!-- ====================================================================== -->

	<person id="1017">
		<plan selected="yes">
			<activity type="home" link="walk_648" x="940299.7261081886" y="1912012.7286210738" end_time="09:30:09" >
			</activity>
			<leg mode="drt">
			</leg>
			<activity type="work" link="walk_9512" x="941378.1507713873" y="1911141.6873621214" max_dur="08:00:00" >
			</activity>
			<leg mode="drt">
			</leg>
			<activity type="home" link="walk_648" x="940299.7261081886" y="1912012.7286210738" >
			</activity>
		</plan>

	</person>

<!-- ====================================================================== -->

	<person id="1018">
		<plan selected="yes">
			<activity type="home" link="walk_862" x="940286.2787870148" y="1911955.0313172066" end_time="10:40:39" >
			</activity>
			<leg mode="drt">
			</leg>
			<activity type="work" link="walk_2352" x="941357.2645197504" y="1911240.372454843" max_dur="08:00:00" >
			</activity>
			<leg mode="drt">
			</leg>
			<activity type="home" link="walk_862" x="940286.2787870148" y="1911955.0313172066" >
			</activity>
		</plan>

	</person>

<!-- ====================================================================== -->

	<person id="1019">
		<plan selected="yes">
			<activity type="home" link="walk_1042" x="940451.9127019338" y="1911981.6803474582" end_time="12:54:08" >
			</activity>
			<leg mode="drt">
			</leg>
			<activity type="work" link="walk_2350" x="941471.0041250483" y="1911098.5311311071" max_dur="08:00:00" >
			</activity>
			<leg mode="drt">
			</leg>
			<activity type="home" link="walk_1042" x="940451.9127019338" y="1911981.6803474582" >
			</activity>
		</plan>

	</person>

<!-- ====================================================================== -->

	<person id="102">
		<plan selected="yes">
			<activity type="home" link="walk_80" x="939803.8277840388" y="1910927.234677423" end_time="13:58:07" >
			</activity>
			<leg mode="drt">
			</leg>
			<activity type="work" link="walk_142" x="941857.995154667" y="1910883.1473379629" max_dur="08:00:00" >
			</activity>
			<leg mode="drt">
			</leg>
			<activity type="home" link="walk_80" x="939803.8277840388" y="1910927.234677423" >
			</activity>
		</plan>

	</person>

<!-- ====================================================================== -->

	<person id="1020">
		<plan selected="yes">
			<activity type="home" link="walk_670" x="940328.5040592767" y="1912165.098240935" end_time="13:32:25" >
			</activity>
			<leg mode="drt">
			</leg>
			<activity type="work" link="walk_2354" x="941504.9283320312" y="1911273.0382753145" max_dur="08:00:00" >
			</activity>
			<leg mode="drt">
			</leg>
			<activity type="home" link="walk_670" x="940328.5040592767" y="1912165.098240935" >
			</activity>
		</plan>

	</person>

<!-- ====================================================================== -->

	<person id="1021">
		<plan selected="yes">
			<activity type="home" link="walk_7314" x="940416.4978974271" y="1912130.5026443806" end_time="14:31:20" >
			</activity>
			<leg mode="drt">
			</leg>
			<activity type="work" link="walk_2364" x="941405.1868450762" y="1911405.190953029" max_dur="08:00:00" >
			</activity>
			<leg mode="drt">
			</leg>
			<activity type="home" link="walk_7314" x="940416.4978974271" y="1912130.5026443806" >
			</activity>
		</plan>

	</person>

<!-- ====================================================================== -->

	<person id="1022">
		<plan selected="yes">
			<activity type="home" link="walk_638" x="940724.4232762983" y="1912085.8968438993" end_time="15:17:23" >
			</activity>
			<leg mode="drt">
			</leg>
			<activity type="work" link="walk_2350" x="941424.7880949121" y="1911254.2840442094" max_dur="08:00:00" >
			</activity>
			<leg mode="drt">
			</leg>
			<activity type="home" link="walk_638" x="940724.4232762983" y="1912085.8968438993" >
			</activity>
		</plan>

	</person>

<!-- ====================================================================== -->

	<person id="1023">
		<plan selected="yes">
			<activity type="home" link="walk_378" x="940505.6474050109" y="1912236.431103639" end_time="19:28:53" >
			</activity>
			<leg mode="drt">
			</leg>
			<activity type="work" link="walk_2352" x="941396.7693174158" y="1911155.545757307" max_dur="08:00:00" >
			</activity>
			<leg mode="drt">
			</leg>
			<activity type="home" link="walk_378" x="940505.6474050109" y="1912236.431103639" >
			</activity>
		</plan>

	</person>

<!-- ====================================================================== -->

	<person id="1024">
		<plan selected="yes">
			<activity type="home" link="walk_670" x="940415.2718231317" y="1912077.8738533228" end_time="20:47:40" >
			</activity>
			<leg mode="drt">
			</leg>
			<activity type="work" link="walk_2354" x="941559.0545456428" y="1911168.4173101252" max_dur="08:00:00" >
			</activity>
			<leg mode="drt">
			</leg>
			<activity type="home" link="walk_670" x="940415.2718231317" y="1912077.8738533228" >
			</activity>
		</plan>

	</person>

<!-- ====================================================================== -->

	<person id="1025">
		<plan selected="yes">
			<activity type="home" link="walk_8298" x="940516.8445651693" y="1911933.9760964364" end_time="21:59:29" >
			</activity>
			<leg mode="drt">
			</leg>
			<activity type="work" link="walk_2350" x="941455.1618818489" y="1911184.142603443" max_dur="08:00:00" >
			</activity>
			<leg mode="drt">
			</leg>
			<activity type="home" link="walk_8298" x="940516.8445651693" y="1911933.9760964364" >
			</activity>
		</plan>

	</person>

<!-- ====================================================================== -->

	<person id="1026">
		<plan selected="yes">
			<activity type="home" link="walk_658" x="940321.9082751786" y="1912110.8964925776" end_time="19:39:39" >
			</activity>
			<leg mode="drt">
			</leg>
			<activity type="work" link="walk_3992" x="940092.642355373" y="1911438.1901527282" max_dur="08:00:00" >
			</activity>
			<leg mode="drt">
			</leg>
			<activity type="home" link="walk_658" x="940321.9082751786" y="1912110.8964925776" >
			</activity>
		</plan>

	</person>

<!-- ====================================================================== -->

	<person id="1027">
		<plan selected="yes">
			<activity type="home" link="walk_852" x="940453.6937785585" y="1911885.850350857" end_time="07:51:59" >
			</activity>
			<leg mode="drt">
			</leg>
			<activity type="work" link="walk_2700" x="939198.2952926062" y="1911774.9692774427" max_dur="08:00:00" >
			</activity>
			<leg mode="drt">
			</leg>
			<activity type="home" link="walk_852" x="940453.6937785585" y="1911885.850350857" >
			</activity>
		</plan>

	</person>

<!-- ====================================================================== -->

	<person id="1028">
		<plan selected="yes">
			<activity type="home" link="walk_7648" x="940424.5392428617" y="1912035.8967697944" end_time="09:58:11" >
			</activity>
			<leg mode="drt">
			</leg>
			<activity type="work" link="walk_2700" x="939170.4417341896" y="1911734.6870045715" max_dur="08:00:00" >
			</activity>
			<leg mode="drt">
			</leg>
			<activity type="home" link="walk_7648" x="940424.5392428617" y="1912035.8967697944" >
			</activity>
		</plan>

	</person>

<!-- ====================================================================== -->

	<person id="1029">
		<plan selected="yes">
			<activity type="home" link="walk_1074" x="940576.3068731073" y="1911809.963428142" end_time="10:48:23" >
			</activity>
			<leg mode="drt">
			</leg>
			<activity type="work" link="walk_3200" x="939224.8051960034" y="1911894.8097896473" max_dur="08:00:00" >
			</activity>
			<leg mode="drt">
			</leg>
			<activity type="home" link="walk_1074" x="940576.3068731073" y="1911809.963428142" >
			</activity>
		</plan>

	</person>

<!-- ====================================================================== -->

	<person id="103">
		<plan selected="yes">
			<activity type="home" link="walk_1186" x="939933.4972918245" y="1910872.0755985472" end_time="14:19:12" >
			</activity>
			<leg mode="drt">
			</leg>
			<activity type="work" link="walk_3784" x="941527.0721547562" y="1910978.255789437" max_dur="08:00:00" >
			</activity>
			<leg mode="drt">
			</leg>
			<activity type="home" link="walk_1186" x="939933.4972918245" y="1910872.0755985472" >
			</activity>
		</plan>

	</person>

<!-- ====================================================================== -->

	<person id="1030">
		<plan selected="yes">
			<activity type="home" link="walk_858" x="940299.3814319181" y="1911980.646260074" end_time="11:18:41" >
			</activity>
			<leg mode="drt">
			</leg>
			<activity type="work" link="walk_8" x="939140.5321716991" y="1911814.5863223984" max_dur="08:00:00" >
			</activity>
			<leg mode="drt">
			</leg>
			<activity type="home" link="walk_858" x="940299.3814319181" y="1911980.646260074" >
			</activity>
		</plan>

	</person>

<!-- ====================================================================== -->

	<person id="1031">
		<plan selected="yes">
			<activity type="home" link="walk_658" x="940378.5192970916" y="1912078.1512129826" end_time="11:28:06" >
			</activity>
			<leg mode="drt">
			</leg>
			<activity type="work" link="walk_2700" x="939152.411693238" y="1911786.6024175757" max_dur="08:00:00" >
			</activity>
			<leg mode="drt">
			</leg>
			<activity type="home" link="walk_658" x="940378.5192970916" y="1912078.1512129826" >
			</activity>
		</plan>

	</person>

<!-- ====================================================================== -->

	<person id="1032">
		<plan selected="yes">
			<activity type="home" link="walk_658" x="940353.0527688336" y="1912082.0233637516" end_time="12:14:52" >
			</activity>
			<leg mode="drt">
			</leg>
			<activity type="work" link="walk_3200" x="939230.391003417" y="1911860.8998564421" max_dur="08:00:00" >
			</activity>
			<leg mode="drt">
			</leg>
			<activity type="home" link="walk_658" x="940353.0527688336" y="1912082.0233637516" >
			</activity>
		</plan>

	</person>

<!-- ====================================================================== -->

	<person id="1033">
		<plan selected="yes">
			<activity type="home" link="walk_670" x="940339.669161252" y="1912143.6256000432" end_time="13:59:42" >
			</activity>
			<leg mode="drt">
			</leg>
			<activity type="work" link="walk_8" x="939065.780100976" y="1911878.6892224224" max_dur="08:00:00" >
			</activity>
			<leg mode="drt">
			</leg>
			<activity type="home" link="walk_670" x="940339.669161252" y="1912143.6256000432" >
			</activity>
		</plan>

	</person>

<!-- ====================================================================== -->

	<person id="1034">
		<plan selected="yes">
			<activity type="home" link="walk_370" x="940532.773090809" y="1912132.807438019" end_time="13:05:37" >
			</activity>
			<leg mode="drt">
			</leg>
			<activity type="work" link="walk_2750" x="939413.2950302905" y="1911788.4535430232" max_dur="08:00:00" >
			</activity>
			<leg mode="drt">
			</leg>
			<activity type="home" link="walk_370" x="940532.773090809" y="1912132.807438019" >
			</activity>
		</plan>

	</person>

<!-- ====================================================================== -->

	<person id="1035">
		<plan selected="yes">
			<activity type="home" link="walk_366" x="940542.8647450748" y="1912112.7905727911" end_time="14:43:11" >
			</activity>
			<leg mode="drt">
			</leg>
			<activity type="work" link="walk_8" x="939256.4146280768" y="1911948.7443284967" max_dur="08:00:00" >
			</activity>
			<leg mode="drt">
			</leg>
			<activity type="home" link="walk_366" x="940542.8647450748" y="1912112.7905727911" >
			</activity>
		</plan>

	</person>

<!-- ====================================================================== -->

	<person id="1036">
		<plan selected="yes">
			<activity type="home" link="walk_376" x="940464.3579585329" y="1912124.6066291458" end_time="15:28:28" >
			</activity>
			<leg mode="drt">
			</leg>
			<activity type="work" link="walk_2704" x="939315.8429156655" y="1911746.7366278858" max_dur="08:00:00" >
			</activity>
			<leg mode="drt">
			</leg>
			<activity type="home" link="walk_376" x="940464.3579585329" y="1912124.6066291458" >
			</activity>
		</plan>

	</person>

<!-- ====================================================================== -->

	<person id="1037">
		<plan selected="yes">
			<activity type="home" link="car_881" x="940331.6207228322" y="1912212.9449837105" end_time="16:27:29" >
			</activity>
			<leg mode="drt">
			</leg>
			<activity type="work" link="walk_1764" x="939408.132323928" y="1911891.31843787" max_dur="08:00:00" >
			</activity>
			<leg mode="drt">
			</leg>
			<activity type="home" link="car_881" x="940331.6207228322" y="1912212.9449837105" >
			</activity>
		</plan>

	</person>

<!-- ====================================================================== -->

	<person id="1038">
		<plan selected="yes">
			<activity type="home" link="walk_1666" x="940582.7147045315" y="1912031.670656432" end_time="16:23:43" >
			</activity>
			<leg mode="drt">
			</leg>
			<activity type="work" link="walk_2704" x="939276.8756421434" y="1911764.3874980693" max_dur="08:00:00" >
			</activity>
			<leg mode="drt">
			</leg>
			<activity type="home" link="walk_1666" x="940582.7147045315" y="1912031.670656432" >
			</activity>
		</plan>

	</person>

<!-- ====================================================================== -->

	<person id="1039">
		<plan selected="yes">
			<activity type="home" link="walk_360" x="940624.1068497187" y="1912062.0556863137" end_time="17:24:27" >
			</activity>
			<leg mode="drt">
			</leg>
			<activity type="work" link="walk_2704" x="939211.7113298334" y="1911804.4241127651" max_dur="08:00:00" >
			</activity>
			<leg mode="drt">
			</leg>
			<activity type="home" link="walk_360" x="940624.1068497187" y="1912062.0556863137" >
			</activity>
		</plan>

	</person>

<!-- ====================================================================== -->

	<person id="104">
		<plan selected="yes">
			<activity type="home" link="walk_82" x="939885.8739099813" y="1910851.744060908" end_time="15:48:57" >
			</activity>
			<leg mode="drt">
			</leg>
			<activity type="work" link="walk_3784" x="941613.7268522753" y="1910884.6800960973" max_dur="08:00:00" >
			</activity>
			<leg mode="drt">
			</leg>
			<activity type="home" link="walk_82" x="939885.8739099813" y="1910851.744060908" >
			</activity>
		</plan>

	</person>

<!-- ====================================================================== -->

	<person id="1040">
		<plan selected="yes">
			<activity type="home" link="walk_368" x="940552.7368474696" y="1912190.6485943762" end_time="18:50:35" >
			</activity>
			<leg mode="drt">
			</leg>
			<activity type="work" link="walk_3200" x="939243.0052424945" y="1911837.0926092735" max_dur="08:00:00" >
			</activity>
			<leg mode="drt">
			</leg>
			<activity type="home" link="walk_368" x="940552.7368474696" y="1912190.6485943762" >
			</activity>
		</plan>

	</person>

<!-- ====================================================================== -->

	<person id="1041">
		<plan selected="yes">
			<activity type="home" link="walk_650" x="940432.2087206172" y="1912066.4337115646" end_time="18:45:07" >
			</activity>
			<leg mode="drt">
			</leg>
			<activity type="work" link="walk_2700" x="939187.1691914047" y="1911513.8374556466" max_dur="08:00:00" >
			</activity>
			<leg mode="drt">
			</leg>
			<activity type="home" link="walk_650" x="940432.2087206172" y="1912066.4337115646" >
			</activity>
		</plan>

	</person>

<!-- ====================================================================== -->

	<person id="1042">
		<plan selected="yes">
			<activity type="home" link="walk_7648" x="940441.1842924939" y="1912035.4215306179" end_time="19:48:07" >
			</activity>
			<leg mode="drt">
			</leg>
			<activity type="work" link="walk_2700" x="939292.1798495471" y="1911684.0978035207" max_dur="08:00:00" >
			</activity>
			<leg mode="drt">
			</leg>
			<activity type="home" link="walk_7648" x="940441.1842924939" y="1912035.4215306179" >
			</activity>
		</plan>

	</person>

<!-- ====================================================================== -->

	<person id="1043">
		<plan selected="yes">
			<activity type="home" link="walk_7284" x="940515.7955284106" y="1911991.3707832561" end_time="21:41:04" >
			</activity>
			<leg mode="drt">
			</leg>
			<activity type="work" link="walk_2704" x="939364.4593623742" y="1911766.6207821597" max_dur="08:00:00" >
			</activity>
			<leg mode="drt">
			</leg>
			<activity type="home" link="walk_7284" x="940515.7955284106" y="1911991.3707832561" >
			</activity>
		</plan>

	</person>

<!-- ====================================================================== -->

	<person id="1044">
		<plan selected="yes">
			<activity type="home" link="walk_7312" x="940421.8582925716" y="1912149.4848931194" end_time="22:05:11" >
			</activity>
			<leg mode="drt">
			</leg>
			<activity type="work" link="walk_3200" x="939220.0084146247" y="1911890.8962738547" max_dur="08:00:00" >
			</activity>
			<leg mode="drt">
			</leg>
			<activity type="home" link="walk_7312" x="940421.8582925716" y="1912149.4848931194" >
			</activity>
		</plan>

	</person>

<!-- ====================================================================== -->

	<person id="1045">
		<plan selected="yes">
			<activity type="home" link="walk_7648" x="940335.6852084082" y="1911958.8643440455" end_time="08:47:31" >
			</activity>
			<leg mode="drt">
			</leg>
			<activity type="work" link="walk_3188" x="939676.7889045869" y="1911769.5745970274" max_dur="08:00:00" >
			</activity>
			<leg mode="drt">
			</leg>
			<activity type="home" link="walk_7648" x="940335.6852084082" y="1911958.8643440455" >
			</activity>
		</plan>

	</person>

<!-- ====================================================================== -->

	<person id="1046">
		<plan selected="yes">
			<activity type="home" link="walk_368" x="940549.6618829978" y="1912185.7879677026" end_time="09:08:03" >
			</activity>
			<leg mode="drt">
			</leg>
			<activity type="work" link="walk_2750" x="939579.8308955217" y="1911747.7721693935" max_dur="08:00:00" >